<?xml version="1.0"?>
<!DOCTYPE facilities SYSTEM "http://www.matsim.org/files/dtd/facilities_v1.dtd">
<facilities>
  <!-- ====================================================================== -->
  <facility id="111647" x="1101747.65887293" y="1935532.69729411">
    <activity type="all">
      <opentime day="wk" start_time="00:00:00" end_time="24:00:00"/>
    </activity>
  </facility>
  <!-- ====================================================================== -->
  <facility id="111710" x="1103646.71444133" y="1942836.82822635">
    <activity type="all">
      <opentime day="wk" start_time="00:00:00" end_time="24:00:00"/>
    </activity>
  </facility>
  <!-- ====================================================================== -->
  <facility id="111752" x="1104719.71934687" y="1939345.80102538">
    <activity type="all">
      <opentime day="wk" start_time="00:00:00" end_time="24:00:00"/>
    </activity>
  </facility>
  <!-- ====================================================================== -->
  <facility id="111755" x="1104883.71066077" y="1936185.72421727">
    <activity type="all">
      <opentime day="wk" start_time="00:00:00" end_time="24:00:00"/>
    </activity>
  </facility>
  <!-- ====================================================================== -->
  <facility id="111756" x="1104919.73065416" y="1935950.86406245">
    <activity type="all">
      <opentime day="wk" start_time="00:00:00" end_time="24:00:00"/>
    </activity>
  </facility>
  <!-- ====================================================================== -->
  <facility id="111781" x="1105471.53953604" y="1936815.93256184">
    <activity type="all">
      <opentime day="wk" start_time="00:00:00" end_time="24:00:00"/>
    </activity>
  </facility>
  <!-- ====================================================================== -->
  <facility id="111794" x="1105819.70707403" y="1935537.92637054">
    <activity type="all">
      <opentime day="wk" start_time="00:00:00" end_time="24:00:00"/>
    </activity>
  </facility>
  <!-- ====================================================================== -->
  <facility id="111808" x="1106235.65253811" y="1936122.79882183">
    <activity type="all">
      <opentime day="wk" start_time="00:00:00" end_time="24:00:00"/>
    </activity>
  </facility>
  <!-- ====================================================================== -->
  <facility id="111809" x="1106237.70488279" y="1936457.70590871">
    <activity type="all">
      <opentime day="wk" start_time="00:00:00" end_time="24:00:00"/>
    </activity>
  </facility>
  <!-- ====================================================================== -->
  <facility id="111817" x="1106246.51396037" y="1941936.72213826">
    <activity type="all">
      <opentime day="wk" start_time="00:00:00" end_time="24:00:00"/>
    </activity>
  </facility>
  <!-- ====================================================================== -->
  <facility id="111858" x="1107134.69913996" y="1939495.8065336">
    <activity type="all">
      <opentime day="wk" start_time="00:00:00" end_time="24:00:00"/>
    </activity>
  </facility>
  <!-- ====================================================================== -->
  <facility id="111866" x="1107304.58643444" y="1939500.71240562">
    <activity type="all">
      <opentime day="wk" start_time="00:00:00" end_time="24:00:00"/>
    </activity>
  </facility>
  <!-- ====================================================================== -->
  <facility id="111882" x="1107644.6339639" y="1936739.88632582">
    <activity type="all">
      <opentime day="wk" start_time="00:00:00" end_time="24:00:00"/>
    </activity>
  </facility>
  <!-- ====================================================================== -->
  <facility id="111889" x="1107700.60424923" y="1936285.75849328">
    <activity type="all">
      <opentime day="wk" start_time="00:00:00" end_time="24:00:00"/>
    </activity>
  </facility>
  <!-- ====================================================================== -->
  <facility id="111892" x="1107760.61382473" y="1935377.95683604">
    <activity type="all">
      <opentime day="wk" start_time="00:00:00" end_time="24:00:00"/>
    </activity>
  </facility>
  <!-- ====================================================================== -->
  <facility id="111899" x="1107861.6925843" y="1942406.95776179">
    <activity type="all">
      <opentime day="wk" start_time="00:00:00" end_time="24:00:00"/>
    </activity>
  </facility>
  <!-- ====================================================================== -->
  <facility id="111906" x="1108024.50724465" y="1937448.86604043">
    <activity type="all">
      <opentime day="wk" start_time="00:00:00" end_time="24:00:00"/>
    </activity>
  </facility>
  <!-- ====================================================================== -->
  <facility id="111919" x="1108188.53503077" y="1935900.97776208">
    <activity type="all">
      <opentime day="wk" start_time="00:00:00" end_time="24:00:00"/>
    </activity>
  </facility>
  <!-- ====================================================================== -->
  <facility id="111920" x="1108215.61250915" y="1937556.65604148">
    <activity type="all">
      <opentime day="wk" start_time="00:00:00" end_time="24:00:00"/>
    </activity>
  </facility>
  <!-- ====================================================================== -->
  <facility id="111921" x="1108221.57702915" y="1934903.75231486">
    <activity type="all">
      <opentime day="wk" start_time="00:00:00" end_time="24:00:00"/>
    </activity>
  </facility>
  <!-- ====================================================================== -->
  <facility id="111936" x="1108430.6639734" y="1935875.66529265">
    <activity type="all">
      <opentime day="wk" start_time="00:00:00" end_time="24:00:00"/>
    </activity>
  </facility>
  <!-- ====================================================================== -->
  <facility id="111942" x="1108506.64445725" y="1934935.88210588">
    <activity type="all">
      <opentime day="wk" start_time="00:00:00" end_time="24:00:00"/>
    </activity>
  </facility>
  <!-- ====================================================================== -->
  <facility id="111947" x="1108646.54852284" y="1936436.92213021">
    <activity type="all">
      <opentime day="wk" start_time="00:00:00" end_time="24:00:00"/>
    </activity>
  </facility>
  <!-- ====================================================================== -->
  <facility id="111953" x="1108650.50110885" y="1936867.68102663">
    <activity type="all">
      <opentime day="wk" start_time="00:00:00" end_time="24:00:00"/>
    </activity>
  </facility>
  <!-- ====================================================================== -->
  <facility id="111954" x="1108713.53833496" y="1941706.71813993">
    <activity type="all">
      <opentime day="wk" start_time="00:00:00" end_time="24:00:00"/>
    </activity>
  </facility>
  <!-- ====================================================================== -->
  <facility id="111964" x="1108895.66136309" y="1935308.93425887">
    <activity type="all">
      <opentime day="wk" start_time="00:00:00" end_time="24:00:00"/>
    </activity>
  </facility>
  <!-- ====================================================================== -->
  <facility id="111976" x="1109246.63981596" y="1936636.91906881">
    <activity type="all">
      <opentime day="wk" start_time="00:00:00" end_time="24:00:00"/>
    </activity>
  </facility>
  <!-- ====================================================================== -->
  <facility id="111977" x="1109246.6843086" y="1941236.92835345">
    <activity type="all">
      <opentime day="wk" start_time="00:00:00" end_time="24:00:00"/>
    </activity>
  </facility>
  <!-- ====================================================================== -->
  <facility id="111995" x="1109446.63642303" y="1930536.6101513">
    <activity type="all">
      <opentime day="wk" start_time="00:00:00" end_time="24:00:00"/>
    </activity>
  </facility>
  <!-- ====================================================================== -->
  <facility id="112000" x="1109647.42614999" y="1934361.84840708">
    <activity type="all">
      <opentime day="wk" start_time="00:00:00" end_time="24:00:00"/>
    </activity>
  </facility>
  <!-- ====================================================================== -->
  <facility id="112008" x="1109846.45763643" y="1937036.99377545">
    <activity type="all">
      <opentime day="wk" start_time="00:00:00" end_time="24:00:00"/>
    </activity>
  </facility>
  <!-- ====================================================================== -->
  <facility id="112010" x="1109556.51817593" y="1933720.71923866">
    <activity type="all">
      <opentime day="wk" start_time="00:00:00" end_time="24:00:00"/>
    </activity>
  </facility>
  <!-- ====================================================================== -->
  <facility id="112031" x="1110231.47927712" y="1939997.03001096">
    <activity type="all">
      <opentime day="wk" start_time="00:00:00" end_time="24:00:00"/>
    </activity>
  </facility>
  <!-- ====================================================================== -->
  <facility id="112037" x="1110331.55284595" y="1936275.80193873">
    <activity type="all">
      <opentime day="wk" start_time="00:00:00" end_time="24:00:00"/>
    </activity>
  </facility>
  <!-- ====================================================================== -->
  <facility id="112039" x="1110346.49226443" y="1938236.79882078">
    <activity type="all">
      <opentime day="wk" start_time="00:00:00" end_time="24:00:00"/>
    </activity>
  </facility>
  <!-- ====================================================================== -->
  <facility id="112040" x="1110346.49631982" y="1938436.86266813">
    <activity type="all">
      <opentime day="wk" start_time="00:00:00" end_time="24:00:00"/>
    </activity>
  </facility>
  <!-- ====================================================================== -->
  <facility id="112049" x="1110446.4963856" y="1935736.72649191">
    <activity type="all">
      <opentime day="wk" start_time="00:00:00" end_time="24:00:00"/>
    </activity>
  </facility>
  <!-- ====================================================================== -->
  <facility id="112050" x="1110446.53862798" y="1938036.91260021">
    <activity type="all">
      <opentime day="wk" start_time="00:00:00" end_time="24:00:00"/>
    </activity>
  </facility>
  <!-- ====================================================================== -->
  <facility id="112061" x="1110646.64151562" y="1938036.90470089">
    <activity type="all">
      <opentime day="wk" start_time="00:00:00" end_time="24:00:00"/>
    </activity>
  </facility>
  <!-- ====================================================================== -->
  <facility id="112077" x="1110743.60393184" y="1940406.85895418">
    <activity type="all">
      <opentime day="wk" start_time="00:00:00" end_time="24:00:00"/>
    </activity>
  </facility>
  <!-- ====================================================================== -->
  <facility id="112080" x="1110746.42140613" y="1937836.65388502">
    <activity type="all">
      <opentime day="wk" start_time="00:00:00" end_time="24:00:00"/>
    </activity>
  </facility>
  <!-- ====================================================================== -->
  <facility id="112088" x="1110777.44018673" y="1938982.90782924">
    <activity type="all">
      <opentime day="wk" start_time="00:00:00" end_time="24:00:00"/>
    </activity>
  </facility>
  <!-- ====================================================================== -->
  <facility id="112090" x="1110811.45676671" y="1939226.88648445">
    <activity type="all">
      <opentime day="wk" start_time="00:00:00" end_time="24:00:00"/>
    </activity>
  </facility>
  <!-- ====================================================================== -->
  <facility id="112101" x="1110946.52880268" y="1936836.69402525">
    <activity type="all">
      <opentime day="wk" start_time="00:00:00" end_time="24:00:00"/>
    </activity>
  </facility>
  <!-- ====================================================================== -->
  <facility id="112102" x="1110946.52699805" y="1937236.82153989">
    <activity type="all">
      <opentime day="wk" start_time="00:00:00" end_time="24:00:00"/>
    </activity>
  </facility>
  <!-- ====================================================================== -->
  <facility id="112103" x="1110946.52655616" y="1937536.73502405">
    <activity type="all">
      <opentime day="wk" start_time="00:00:00" end_time="24:00:00"/>
    </activity>
  </facility>
  <!-- ====================================================================== -->
  <facility id="112109" x="1111016.45879906" y="1943566.73446412">
    <activity type="all">
      <opentime day="wk" start_time="00:00:00" end_time="24:00:00"/>
    </activity>
  </facility>
  <!-- ====================================================================== -->
  <facility id="112110" x="1111033.63319373" y="1943856.90320161">
    <activity type="all">
      <opentime day="wk" start_time="00:00:00" end_time="24:00:00"/>
    </activity>
  </facility>
  <!-- ====================================================================== -->
  <facility id="112126" x="1111374.58583384" y="1939756.89906819">
    <activity type="all">
      <opentime day="wk" start_time="00:00:00" end_time="24:00:00"/>
    </activity>
  </facility>
  <!-- ====================================================================== -->
  <facility id="112147" x="1111846.47323483" y="1937336.84759943">
    <activity type="all">
      <opentime day="wk" start_time="00:00:00" end_time="24:00:00"/>
    </activity>
  </facility>
  <!-- ====================================================================== -->
  <facility id="112151" x="1111971.47062918" y="1938836.73717243">
    <activity type="all">
      <opentime day="wk" start_time="00:00:00" end_time="24:00:00"/>
    </activity>
  </facility>
  <!-- ====================================================================== -->
  <facility id="112165" x="1112225.49909713" y="1934513.61867177">
    <activity type="all">
      <opentime day="wk" start_time="00:00:00" end_time="24:00:00"/>
    </activity>
  </facility>
  <!-- ====================================================================== -->
  <facility id="112170" x="1112446.60319083" y="1936236.69472712">
    <activity type="all">
      <opentime day="wk" start_time="00:00:00" end_time="24:00:00"/>
    </activity>
  </facility>
  <!-- ====================================================================== -->
  <facility id="112171" x="1112446.5236408" y="1941337.05308811">
    <activity type="all">
      <opentime day="wk" start_time="00:00:00" end_time="24:00:00"/>
    </activity>
  </facility>
  <!-- ====================================================================== -->
  <facility id="112181" x="1112646.59286848" y="1930536.89522023">
    <activity type="all">
      <opentime day="wk" start_time="00:00:00" end_time="24:00:00"/>
    </activity>
  </facility>
  <!-- ====================================================================== -->
  <facility id="112182" x="1112670.46647777" y="1938586.94886048">
    <activity type="all">
      <opentime day="wk" start_time="00:00:00" end_time="24:00:00"/>
    </activity>
  </facility>
  <!-- ====================================================================== -->
  <facility id="112187" x="1112746.3812577" y="1937836.6719265">
    <activity type="all">
      <opentime day="wk" start_time="00:00:00" end_time="24:00:00"/>
    </activity>
  </facility>
  <!-- ====================================================================== -->
  <facility id="112207" x="1113046.34938482" y="1939836.78424584">
    <activity type="all">
      <opentime day="wk" start_time="00:00:00" end_time="24:00:00"/>
    </activity>
  </facility>
  <!-- ====================================================================== -->
  <facility id="112259" x="1113446.31365704" y="1936836.9448743">
    <activity type="all">
      <opentime day="wk" start_time="00:00:00" end_time="24:00:00"/>
    </activity>
  </facility>
  <!-- ====================================================================== -->
  <facility id="112279" x="1114146.3315864" y="1941436.85169739">
    <activity type="all">
      <opentime day="wk" start_time="00:00:00" end_time="24:00:00"/>
    </activity>
  </facility>
  <!-- ====================================================================== -->
  <facility id="112361" x="1115946.33393213" y="1937036.8008179">
    <activity type="all">
      <opentime day="wk" start_time="00:00:00" end_time="24:00:00"/>
    </activity>
  </facility>
  <!-- ====================================================================== -->
  <facility id="112362" x="1115946.29006413" y="1937236.86487269">
    <activity type="all">
      <opentime day="wk" start_time="00:00:00" end_time="24:00:00"/>
    </activity>
  </facility>
  <!-- ====================================================================== -->
  <facility id="112402" x="1116646.3294133" y="1938636.91259317">
    <activity type="all">
      <opentime day="wk" start_time="00:00:00" end_time="24:00:00"/>
    </activity>
  </facility>
  <!-- ====================================================================== -->
  <facility id="112409" x="1116746.42600309" y="1930836.80189639">
    <activity type="all">
      <opentime day="wk" start_time="00:00:00" end_time="24:00:00"/>
    </activity>
  </facility>
  <!-- ====================================================================== -->
  <facility id="112410" x="1116746.32458034" y="1933436.90327787">
    <activity type="all">
      <opentime day="wk" start_time="00:00:00" end_time="24:00:00"/>
    </activity>
  </facility>
  <!-- ====================================================================== -->
  <facility id="112411" x="1116746.46545687" y="1936136.85923766">
    <activity type="all">
      <opentime day="wk" start_time="00:00:00" end_time="24:00:00"/>
    </activity>
  </facility>
  <!-- ====================================================================== -->
  <facility id="112457" x="1117546.41388556" y="1898936.34275766">
    <activity type="all">
      <opentime day="wk" start_time="00:00:00" end_time="24:00:00"/>
    </activity>
  </facility>
  <!-- ====================================================================== -->
  <facility id="112458" x="1117546.37805578" y="1900136.34321833">
    <activity type="all">
      <opentime day="wk" start_time="00:00:00" end_time="24:00:00"/>
    </activity>
  </facility>
  <!-- ====================================================================== -->
  <facility id="112466" x="1117654.31843966" y="1896301.18636388">
    <activity type="all">
      <opentime day="wk" start_time="00:00:00" end_time="24:00:00"/>
    </activity>
  </facility>
  <!-- ====================================================================== -->
  <facility id="112467" x="1117661.43968729" y="1895769.18991552">
    <activity type="all">
      <opentime day="wk" start_time="00:00:00" end_time="24:00:00"/>
    </activity>
  </facility>
  <!-- ====================================================================== -->
  <facility id="112475" x="1117746.3666336" y="1893536.21353981">
    <activity type="all">
      <opentime day="wk" start_time="00:00:00" end_time="24:00:00"/>
    </activity>
  </facility>
  <!-- ====================================================================== -->
  <facility id="112521" x="1118346.31692816" y="1895936.36328188">
    <activity type="all">
      <opentime day="wk" start_time="00:00:00" end_time="24:00:00"/>
    </activity>
  </facility>
  <!-- ====================================================================== -->
  <facility id="112535" x="1118446.19090468" y="1896236.11622874">
    <activity type="all">
      <opentime day="wk" start_time="00:00:00" end_time="24:00:00"/>
    </activity>
  </facility>
  <!-- ====================================================================== -->
  <facility id="112537" x="1118446.24926308" y="1937436.98967736">
    <activity type="all">
      <opentime day="wk" start_time="00:00:00" end_time="24:00:00"/>
    </activity>
  </facility>
  <!-- ====================================================================== -->
  <facility id="112566" x="1118846.27712511" y="1898936.13949359">
    <activity type="all">
      <opentime day="wk" start_time="00:00:00" end_time="24:00:00"/>
    </activity>
  </facility>
  <!-- ====================================================================== -->
  <facility id="112567" x="1118846.17456231" y="1900136.14042353">
    <activity type="all">
      <opentime day="wk" start_time="00:00:00" end_time="24:00:00"/>
    </activity>
  </facility>
  <!-- ====================================================================== -->
  <facility id="112568" x="1118846.3953987" y="1902036.17589228">
    <activity type="all">
      <opentime day="wk" start_time="00:00:00" end_time="24:00:00"/>
    </activity>
  </facility>
  <!-- ====================================================================== -->
  <facility id="112571" x="1118946.28635759" y="1893536.17047382">
    <activity type="all">
      <opentime day="wk" start_time="00:00:00" end_time="24:00:00"/>
    </activity>
  </facility>
  <!-- ====================================================================== -->
  <facility id="112584" x="1119246.41666521" y="1933636.74481739">
    <activity type="all">
      <opentime day="wk" start_time="00:00:00" end_time="24:00:00"/>
    </activity>
  </facility>
  <!-- ====================================================================== -->
  <facility id="112585" x="1119246.16314049" y="1938136.92012706">
    <activity type="all">
      <opentime day="wk" start_time="00:00:00" end_time="24:00:00"/>
    </activity>
  </facility>
  <!-- ====================================================================== -->
  <facility id="112588" x="1119346.39844073" y="1936136.85470909">
    <activity type="all">
      <opentime day="wk" start_time="00:00:00" end_time="24:00:00"/>
    </activity>
  </facility>
  <!-- ====================================================================== -->
  <facility id="112589" x="1119346.2937559" y="1941636.99745782">
    <activity type="all">
      <opentime day="wk" start_time="00:00:00" end_time="24:00:00"/>
    </activity>
  </facility>
  <!-- ====================================================================== -->
  <facility id="112590" x="1119346.30817767" y="1942337.04333796">
    <activity type="all">
      <opentime day="wk" start_time="00:00:00" end_time="24:00:00"/>
    </activity>
  </facility>
  <!-- ====================================================================== -->
  <facility id="112595" x="1119446.21856253" y="1930836.64014213">
    <activity type="all">
      <opentime day="wk" start_time="00:00:00" end_time="24:00:00"/>
    </activity>
  </facility>
  <!-- ====================================================================== -->
  <facility id="112606" x="1119646.27843686" y="1896136.26365588">
    <activity type="all">
      <opentime day="wk" start_time="00:00:00" end_time="24:00:00"/>
    </activity>
  </facility>
  <!-- ====================================================================== -->
  <facility id="112625" x="1119846.24005632" y="1938036.91249179">
    <activity type="all">
      <opentime day="wk" start_time="00:00:00" end_time="24:00:00"/>
    </activity>
  </facility>
  <!-- ====================================================================== -->
  <facility id="112638" x="1120146.13920056" y="1898936.37291616">
    <activity type="all">
      <opentime day="wk" start_time="00:00:00" end_time="24:00:00"/>
    </activity>
  </facility>
  <!-- ====================================================================== -->
  <facility id="112639" x="1120146.20624727" y="1900236.22408336">
    <activity type="all">
      <opentime day="wk" start_time="00:00:00" end_time="24:00:00"/>
    </activity>
  </facility>
  <!-- ====================================================================== -->
  <facility id="112642" x="1120246.19686154" y="1896436.37503643">
    <activity type="all">
      <opentime day="wk" start_time="00:00:00" end_time="24:00:00"/>
    </activity>
  </facility>
  <!-- ====================================================================== -->
  <facility id="112643" x="1120246.18082293" y="1902336.17399694">
    <activity type="all">
      <opentime day="wk" start_time="00:00:00" end_time="24:00:00"/>
    </activity>
  </facility>
  <!-- ====================================================================== -->
  <facility id="112644" x="1120246.22765593" y="1937236.7993808">
    <activity type="all">
      <opentime day="wk" start_time="00:00:00" end_time="24:00:00"/>
    </activity>
  </facility>
  <!-- ====================================================================== -->
  <facility id="112651" x="1120346.38404966" y="1893636.1079736">
    <activity type="all">
      <opentime day="wk" start_time="00:00:00" end_time="24:00:00"/>
    </activity>
  </facility>
  <!-- ====================================================================== -->
  <facility id="112652" x="1120346.14556273" y="1895736.19717818">
    <activity type="all">
      <opentime day="wk" start_time="00:00:00" end_time="24:00:00"/>
    </activity>
  </facility>
  <!-- ====================================================================== -->
  <facility id="112654" x="1120346.16050089" y="1937536.93379868">
    <activity type="all">
      <opentime day="wk" start_time="00:00:00" end_time="24:00:00"/>
    </activity>
  </facility>
  <!-- ====================================================================== -->
  <facility id="112672" x="1120746.14583106" y="1896036.2516284">
    <activity type="all">
      <opentime day="wk" start_time="00:00:00" end_time="24:00:00"/>
    </activity>
  </facility>
  <!-- ====================================================================== -->
  <facility id="112673" x="1120746.22112612" y="1941736.99776352">
    <activity type="all">
      <opentime day="wk" start_time="00:00:00" end_time="24:00:00"/>
    </activity>
  </facility>
  <!-- ====================================================================== -->
  <facility id="112735" x="1122046.15652236" y="1930936.77925526">
    <activity type="all">
      <opentime day="wk" start_time="00:00:00" end_time="24:00:00"/>
    </activity>
  </facility>
  <!-- ====================================================================== -->
  <facility id="112750" x="1122346.12568146" y="1907036.27971634">
    <activity type="all">
      <opentime day="wk" start_time="00:00:00" end_time="24:00:00"/>
    </activity>
  </facility>
  <!-- ====================================================================== -->
  <facility id="112759" x="1122446.22284821" y="1904336.21721598">
    <activity type="all">
      <opentime day="wk" start_time="00:00:00" end_time="24:00:00"/>
    </activity>
  </facility>
  <!-- ====================================================================== -->
  <facility id="112760" x="1122446.15405542" y="1905636.43706541">
    <activity type="all">
      <opentime day="wk" start_time="00:00:00" end_time="24:00:00"/>
    </activity>
  </facility>
  <!-- ====================================================================== -->
  <facility id="112763" x="1122546.32477551" y="1902236.34328888">
    <activity type="all">
      <opentime day="wk" start_time="00:00:00" end_time="24:00:00"/>
    </activity>
  </facility>
  <!-- ====================================================================== -->
  <facility id="112770" x="1122646.07543708" y="1900336.16667183">
    <activity type="all">
      <opentime day="wk" start_time="00:00:00" end_time="24:00:00"/>
    </activity>
  </facility>
  <!-- ====================================================================== -->
  <facility id="112771" x="1122646.11672225" y="1933636.65159092">
    <activity type="all">
      <opentime day="wk" start_time="00:00:00" end_time="24:00:00"/>
    </activity>
  </facility>
  <!-- ====================================================================== -->
  <facility id="112779" x="1122846.25131399" y="1936836.69312901">
    <activity type="all">
      <opentime day="wk" start_time="00:00:00" end_time="24:00:00"/>
    </activity>
  </facility>
  <!-- ====================================================================== -->
  <facility id="112780" x="1122946.26954339" y="1937436.75500602">
    <activity type="all">
      <opentime day="wk" start_time="00:00:00" end_time="24:00:00"/>
    </activity>
  </facility>
  <!-- ====================================================================== -->
  <facility id="112783" x="1122846.28340356" y="1936191.6749842">
    <activity type="all">
      <opentime day="wk" start_time="00:00:00" end_time="24:00:00"/>
    </activity>
  </facility>
  <!-- ====================================================================== -->
  <facility id="112790" x="1123246.14285834" y="1940536.82193474">
    <activity type="all">
      <opentime day="wk" start_time="00:00:00" end_time="24:00:00"/>
    </activity>
  </facility>
  <!-- ====================================================================== -->
  <facility id="112799" x="1123979.0816859" y="1930969.79082682">
    <activity type="all">
      <opentime day="wk" start_time="00:00:00" end_time="24:00:00"/>
    </activity>
  </facility>
  <!-- ====================================================================== -->
  <facility id="112800" x="1123446.27226514" y="1937436.82309915">
    <activity type="all">
      <opentime day="wk" start_time="00:00:00" end_time="24:00:00"/>
    </activity>
  </facility>