<?xml version="1.0"?>
<!DOCTYPE network SYSTEM "http://www.matsim.org/files/dtd/network_v1.dtd">
<network>
  <!--================================-->
  <nodes>
    <node id="111647" x="1101747.65887293" y="1935532.69729411"/>
    <node id="111710" x="1103646.71444133" y="1942836.82822635"/>
    <node id="111752" x="1104719.71934687" y="1939345.80102538"/>
    <node id="111755" x="1104883.71066077" y="1936185.72421727"/>
    <node id="111756" x="1104919.73065416" y="1935950.86406245"/>
    <node id="111781" x="1105471.53953604" y="1936815.93256184"/>
    <node id="111794" x="1105819.70707403" y="1935537.92637054"/>
    <node id="111808" x="1106235.65253811" y="1936122.79882183"/>
    <node id="111809" x="1106237.70488279" y="1936457.70590871"/>
    <node id="111817" x="1106246.51396037" y="1941936.72213826"/>
    <node id="111858" x="1107134.69913996" y="1939495.8065336"/>
    <node id="111866" x="1107304.58643444" y="1939500.71240562"/>
    <node id="111882" x="1107644.6339639" y="1936739.88632582"/>
    <node id="111889" x="1107700.60424923" y="1936285.75849328"/>
    <node id="111892" x="1107760.61382473" y="1935377.95683604"/>
    <node id="111899" x="1107861.6925843" y="1942406.95776179"/>
    <node id="111906" x="1108024.50724465" y="1937448.86604043"/>
    <node id="111919" x="1108188.53503077" y="1935900.97776208"/>
    <node id="111920" x="1108215.61250915" y="1937556.65604148"/>
    <node id="111921" x="1108221.57702915" y="1934903.75231486"/>
    <node id="111936" x="1108430.6639734" y="1935875.66529265"/>
    <node id="111942" x="1108506.64445725" y="1934935.88210588"/>
    <node id="111947" x="1108646.54852284" y="1936436.92213021"/>
    <node id="111953" x="1108650.50110885" y="1936867.68102663"/>
    <node id="111954" x="1108713.53833496" y="1941706.71813993"/>
    <node id="111964" x="1108895.66136309" y="1935308.93425887"/>
    <node id="111976" x="1109246.63981596" y="1936636.91906881"/>
    <node id="111977" x="1109246.6843086" y="1941236.92835345"/>
    <node id="111995" x="1109446.63642303" y="1930536.6101513"/>
    <node id="112000" x="1109647.42614999" y="1934361.84840708"/>
    <node id="112008" x="1109846.45763643" y="1937036.99377545"/>
    <node id="112010" x="1109556.51817593" y="1933720.71923866"/>
    <node id="112031" x="1110231.47927712" y="1939997.03001096"/>
    <node id="112037" x="1110331.55284595" y="1936275.80193873"/>
    <node id="112039" x="1110346.49226443" y="1938236.79882078"/>
    <node id="112040" x="1110346.49631982" y="1938436.86266813"/>
    <node id="112049" x="1110446.4963856" y="1935736.72649191"/>
    <node id="112050" x="1110446.53862798" y="1938036.91260021"/>
    <node id="112061" x="1110646.64151562" y="1938036.90470089"/>
    <node id="112077" x="1110743.60393184" y="1940406.85895418"/>
    <node id="112080" x="1110746.42140613" y="1937836.65388502"/>
    <node id="112088" x="1110777.44018673" y="1938982.90782924"/>
    <node id="112090" x="1110811.45676671" y="1939226.88648445"/>
    <node id="112101" x="1110946.52880268" y="1936836.69402525"/>
    <node id="112102" x="1110946.52699805" y="1937236.82153989"/>
    <node id="112103" x="1110946.52655616" y="1937536.73502405"/>
    <node id="112109" x="1111016.45879906" y="1943566.73446412"/>
    <node id="112110" x="1111033.63319373" y="1943856.90320161"/>
    <node id="112126" x="1111374.58583384" y="1939756.89906819"/>
    <node id="112147" x="1111846.47323483" y="1937336.84759943"/>
    <node id="112151" x="1111971.47062918" y="1938836.73717243"/>
    <node id="112165" x="1112225.49909713" y="1934513.61867177"/>
    <node id="112170" x="1112446.60319083" y="1936236.69472712"/>
    <node id="112171" x="1112446.5236408" y="1941337.05308811"/>
    <node id="112181" x="1112646.59286848" y="1930536.89522023"/>
    <node id="112182" x="1112670.46647777" y="1938586.94886048"/>
    <node id="112187" x="1112746.3812577" y="1937836.6719265"/>
    <node id="112207" x="1113046.34938482" y="1939836.78424584"/>
    <node id="112259" x="1113446.31365704" y="1936836.9448743"/>
    <node id="112279" x="1114146.3315864" y="1941436.85169739"/>
    <node id="112361" x="1115946.33393213" y="1937036.8008179"/>
    <node id="112362" x="1115946.29006413" y="1937236.86487269"/>
    <node id="112402" x="1116646.3294133" y="1938636.91259317"/>
    <node id="112409" x="1116746.42600309" y="1930836.80189639"/>
    <node id="112410" x="1116746.32458034" y="1933436.90327787"/>
    <node id="112411" x="1116746.46545687" y="1936136.85923766"/>
    <node id="112457" x="1117546.41388556" y="1898936.34275766"/>
    <node id="112458" x="1117546.37805578" y="1900136.34321833"/>
    <node id="112466" x="1117654.31843966" y="1896301.18636388"/>
    <node id="112467" x="1117661.43968729" y="1895769.18991552"/>
    <node id="112475" x="1117746.3666336" y="1893536.21353981"/>
    <node id="112521" x="1118346.31692816" y="1895936.36328188"/>
    <node id="112535" x="1118446.19090468" y="1896236.11622874"/>
    <node id="112537" x="1118446.24926308" y="1937436.98967736"/>
    <node id="112566" x="1118846.27712511" y="1898936.13949359"/>
    <node id="112567" x="1118846.17456231" y="1900136.14042353"/>
    <node id="112568" x="1118846.3953987" y="1902036.17589228"/>
    <node id="112571" x="1118946.28635759" y="1893536.17047382"/>
    <node id="112584" x="1119246.41666521" y="1933636.74481739"/>
    <node id="112585" x="1119246.16314049" y="1938136.92012706"/>
    <node id="112588" x="1119346.39844073" y="1936136.85470909"/>
    <node id="112589" x="1119346.2937559" y="1941636.99745782"/>
    <node id="112590" x="1119346.30817767" y="1942337.04333796"/>
    <node id="112595" x="1119446.21856253" y="1930836.64014213"/>
    <node id="112606" x="1119646.27843686" y="1896136.26365588"/>
    <node id="112625" x="1119846.24005632" y="1938036.91249179"/>
    <node id="112638" x="1120146.13920056" y="1898936.37291616"/>
    <node id="112639" x="1120146.20624727" y="1900236.22408336"/>
    <node id="112642" x="1120246.19686154" y="1896436.37503643"/>
    <node id="112643" x="1120246.18082293" y="1902336.17399694"/>
    <node id="112644" x="1120246.22765593" y="1937236.7993808"/>
    <node id="112651" x="1120346.38404966" y="1893636.1079736"/>
    <node id="112652" x="1120346.14556273" y="1895736.19717818"/>
    <node id="112654" x="1120346.16050089" y="1937536.93379868"/>
    <node id="112672" x="1120746.14583106" y="1896036.2516284"/>
    <node id="112673" x="1120746.22112612" y="1941736.99776352"/>
    <node id="112735" x="1122046.15652236" y="1930936.77925526"/>
    <node id="112750" x="1122346.12568146" y="1907036.27971634"/>
    <node id="112759" x="1122446.22284821" y="1904336.21721598"/>
    <node id="112760" x="1122446.15405542" y="1905636.43706541"/>
    <node id="112763" x="1122546.32477551" y="1902236.34328888"/>
    <node id="112770" x="1122646.07543708" y="1900336.16667183"/>
    <node id="112771" x="1122646.11672225" y="1933636.65159092"/>
    <node id="112779" x="1122846.25131399" y="1936836.69312901"/>
    <node id="112780" x="1122946.26954339" y="1937436.75500602"/>
    <node id="112783" x="1122846.28340356" y="1936191.6749842"/>
    <node id="112790" x="1123246.14285834" y="1940536.82193474"/>
    <node id="112799" x="1123979.0816859" y="1930969.79082682"/>
    <node id="112800" x="1123446.27226514" y="1937436.82309915"/>
    <node id="112801" x="1123446.06439081" y="1941836.80253516"/>
    <node id="112809" x="1124001.22308452" y="1933580.60437333"/>
    <node id="112816" x="1123846.11613894" y="1937136.75011466"/>
    <node id="112827" x="1124046.25511673" y="1896436.19601005"/>
    <node id="112828" x="1124046.01413597" y="1937036.64121196"/>
    <node id="112841" x="1124346.23792904" y="1893736.2548214"/>
    <node id="112850" x="1124546.15477578" y="1896736.18513594"/>
    <node id="112857" x="1124746.19701166" y="1936125.80253696"/>
    <node id="112858" x="1124746.13576507" y="1936676.80145157"/>
    <node id="112859" x="1124746.13876375" y="1937036.84605464"/>
    <node id="112867" x="1124946.24426909" y="1899136.41257705"/>
    <node id="112868" x="1124946.14411444" y="1943936.85598916"/>
    <node id="112872" x="1125101.23913166" y="1896328.10339522"/>
    <node id="112876" x="1125246.01306336" y="1896936.08416554"/>
    <node id="112887" x="1125446.20841548" y="1897836.29389437"/>
    <node id="112888" x="1125446.08496164" y="1900336.15325384"/>
    <node id="112889" x="1125446.2290389" y="1909636.3161608"/>
    <node id="112893" x="1125546.20003008" y="1899136.38775764"/>
    <node id="112894" x="1125546.18681748" y="1902336.28423036"/>
    <node id="112895" x="1125546.12991389" y="1909636.55608803"/>
    <node id="112899" x="1125646.16965679" y="1906736.43630054"/>
    <node id="112902" x="1125746.09602586" y="1899136.13942531"/>
    <node id="112903" x="1125746.1314891" y="1904436.50683657"/>
    <node id="112904" x="1125746.09303569" y="1905836.21394959"/>
    <node id="112905" x="1125746.14666568" y="1936636.93929512"/>
    <node id="112911" x="1125846.04805626" y="1902236.42862705"/>
    <node id="112927" x="1126446.21414635" y="1936336.91439202"/>
    <node id="112943" x="1127146.10780663" y="1942136.91050174"/>
    <node id="112949" x="1127346.11763639" y="1928736.67106126"/>
    <node id="112950" x="1127345.93451477" y="1931069.66708053"/>
    <node id="112951" x="1127346.12847317" y="1931436.63635301"/>
    <node id="112952" x="1127346.14143667" y="1933736.8390366"/>
    <node id="112953" x="1127345.10705859" y="1936029.74948222"/>
    <node id="112954" x="1127346.1406975" y="1936436.81078188"/>
    <node id="112955" x="1127346.12915719" y="1936836.94179508"/>
    <node id="112956" x="1127345.96600948" y="1937836.904423"/>
    <node id="112957" x="1127346.04805395" y="1941936.9795163"/>
    <node id="112958" x="1127346.17727135" y="1942137.04637493"/>
    <node id="112978" x="1127556.96101892" y="1896676.09926203"/>
    <node id="112994" x="1127845.99267017" y="1909736.588648"/>
    <node id="112998" x="1127946.00798617" y="1905736.31200726"/>
    <node id="112999" x="1127946.17603249" y="1907036.5383071"/>
    <node id="113001" x="1128046.16245393" y="1902336.23074975"/>
    <node id="113002" x="1128046.03397549" y="1904436.33864369"/>
    <node id="113003" x="1128046.06646803" y="1936736.66515762"/>
    <node id="113007" x="1128145.92147833" y="1899136.21467244"/>
    <node id="113008" x="1128146.03888568" y="1899736.4015147"/>
    <node id="113009" x="1128146.08581394" y="1900436.43695702"/>
    <node id="113010" x="1128146.12332606" y="1936736.91877301"/>
    <node id="113013" x="1128245.93398429" y="1897136.21136967"/>
    <node id="113014" x="1128245.97948949" y="1897836.24596513"/>
    <node id="113016" x="1128249.17885953" y="1896565.19885512"/>
    <node id="113017" x="1128346.14385583" y="1893736.14475786"/>
    <node id="113020" x="1128446.14412857" y="1891036.11456456"/>
    <node id="113049" x="1128945.89053467" y="1935536.74270907"/>
    <node id="113050" x="1128946.00828812" y="1936436.85673936"/>
    <node id="113055" x="1129046.14351735" y="1937036.9475306"/>
    <node id="113064" x="1129245.9930457" y="1896836.2871869"/>
    <node id="113102" x="1129745.86149996" y="1936536.95333085"/>
    <node id="113110" x="1130046.0633237" y="1931536.82609066"/>
    <node id="113112" x="1130145.93380144" y="1936736.9711806"/>
    <node id="113120" x="1130446.01039" y="1935236.71930402"/>
    <node id="113133" x="1130745.88052275" y="1909736.38261814"/>
    <node id="113134" x="1130846.03605012" y="1905836.3260717"/>
    <node id="113135" x="1130846.04256135" y="1907136.55368414"/>
    <node id="113137" x="1130945.87804966" y="1902336.40013692"/>
    <node id="113138" x="1130945.95101253" y="1904536.36212794"/>
    <node id="113142" x="1131046.02980999" y="1897836.17068035"/>
    <node id="113143" x="1131046.03430367" y="1899136.39340904"/>
    <node id="113144" x="1131045.99474291" y="1899836.42931944"/>
    <node id="113146" x="1131146.05587972" y="1893836.28689358"/>
    <node id="113149" x="1131245.83451287" y="1891136.26264948"/>
    <node id="113173" x="1131745.96525349" y="1936536.78029402"/>
    <node id="113179" x="1131945.90444824" y="1936736.65586766"/>
    <node id="113191" x="1132345.97394664" y="1893836.2026961"/>
    <node id="113192" x="1132345.96657702" y="1897836.35329536"/>
    <node id="113193" x="1132345.9010778" y="1899136.21218891"/>
    <node id="113194" x="1132345.82258799" y="1899836.24839986"/>
    <node id="113195" x="1132346.04379031" y="1902336.48695465"/>
    <node id="113204" x="1132645.90262961" y="1931636.6912548"/>
    <node id="113205" x="1132646.02329545" y="1934136.60365388"/>
    <node id="113206" x="1132645.91422403" y="1934836.65164089"/>
    <node id="113208" x="1132656.82365028" y="1934916.89331848"/>
    <node id="113209" x="1132667.97363992" y="1936196.8041744"/>
    <node id="113210" x="1132745.83111274" y="1936736.64097721"/>
    <node id="113211" x="1132745.97764031" y="1937736.97314768"/>
    <node id="113212" x="1132876.86050882" y="1936186.83931037"/>
    <node id="113217" x="1132945.89280838" y="1928436.82580442"/>
    <node id="113220" x="1132971.95110746" y="1936496.83832496"/>
    <node id="113231" x="1133146.00527562" y="1934236.72964553"/>
    <node id="113240" x="1133445.87351495" y="1909836.56583136"/>
    <node id="113242" x="1133545.89924917" y="1904536.43513609"/>
    <node id="113243" x="1133545.93552672" y="1905936.51369986"/>
    <node id="113244" x="1133545.79396912" y="1907236.37814354"/>
    <node id="113245" x="1133646.00592069" y="1902336.38116996"/>
    <node id="113246" x="1133645.99042706" y="1936836.78287791"/>
    <node id="113248" x="1133745.76454909" y="1897936.36688627"/>
    <node id="113249" x="1133745.893426" y="1899236.22819077"/>
    <node id="113250" x="1133745.77294651" y="1899936.26475951"/>
    <node id="113251" x="1133745.89161213" y="1907236.5649152"/>
    <node id="113255" x="1133845.98251855" y="1893936.12472425"/>
    <node id="113260" x="1133945.91341662" y="1888536.18496514"/>
    <node id="113261" x="1133945.80039363" y="1891236.10769959"/>
    <node id="113262" x="1133945.92934331" y="1909836.48680266"/>
    <node id="113269" x="1134145.89497668" y="1936136.66544933"/>
    <node id="113270" x="1134145.96681477" y="1936336.73223384"/>
    <node id="113271" x="1134145.73958969" y="1936836.71445153"/>
    <node id="113298" x="1134745.9588751" y="1935636.90743465"/>
    <node id="113313" x="1135045.97255126" y="1897936.33703609"/>
    <node id="113314" x="1135045.92723343" y="1899336.41189883"/>
    <node id="113315" x="1135045.76775707" y="1900036.44880278"/>
    <node id="113320" x="1135245.83677778" y="1893936.37605858"/>
    <node id="113321" x="1135245.82929101" y="1931636.63215188"/>
    <node id="113325" x="1135345.76098858" y="1933336.930856"/>
    <node id="113326" x="1135345.9074908" y="1934236.68322789"/>
    <node id="113327" x="1135345.71722522" y="1934936.73187204"/>
    <node id="113328" x="1135345.92163801" y="1936036.91617733"/>
    <node id="113329" x="1135345.89808691" y="1936836.81756452"/>
    <node id="113337" x="1135545.8007681" y="1928536.64559042"/>
    <node id="113338" x="1135545.84321189" y="1931336.83942898"/>
    <node id="113340" x="1135545.9111525" y="1956036.94163464"/>
    <node id="113341" x="1135545.73523848" y="1960737.27803242"/>
    <node id="113345" x="1135645.90962559" y="1896136.37085184"/>
    <node id="113346" x="1135645.75129828" y="1925836.5908185"/>
    <node id="113347" x="1135645.89809162" y="1958037.18458439"/>
    <node id="113349" x="1135656.90027718" y="1895995.414276"/>
    <node id="113358" x="1136045.95003483" y="1909936.41175613"/>
    <node id="113362" x="1136145.74926146" y="1904636.28197058"/>
    <node id="113363" x="1136145.9018519" y="1906036.36360855"/>
    <node id="113364" x="1136145.88772825" y="1907336.23101378"/>
    <node id="113368" x="1136245.7683348" y="1902236.1716408"/>
    <node id="113369" x="1136345.7860886" y="1899336.45321603"/>
    <node id="113370" x="1136345.86237052" y="1900036.12779621"/>
    <node id="113371" x="1136345.94140476" y="1936836.76794373"/>
    <node id="113373" x="1136345.84281525" y="1950036.83552294"/>
    <node id="113376" x="1136445.75019106" y="1895736.33683934"/>
    <node id="113377" x="1136445.93105617" y="1896336.16175678"/>
    <node id="113378" x="1136445.75767052" y="1898036.14805399"/>
    <node id="113380" x="1136545.76561965" y="1891336.3421986"/>
    <node id="113381" x="1136545.72603024" y="1893936.05991933"/>
    <node id="113382" x="1136545.92893065" y="1934236.84534377"/>
    <node id="113383" x="1136545.8715122" y="1934536.76242023"/>
    <node id="113385" x="1136645.90245634" y="1888635.97308835"/>
    <node id="113386" x="1136645.86399009" y="1952937.05383254"/>
    <node id="113392" x="1136745.94538066" y="1886036.18449163"/>
    <node id="113397" x="1136845.84012694" y="1883336.18532274"/>
    <node id="113399" x="1136945.83174658" y="1952937.19968437"/>
    <node id="113403" x="1137145.80521976" y="1934236.76648959"/>
    <node id="113413" x="1137345.85419582" y="1933836.85416155"/>
    <node id="113414" x="1137445.65103346" y="1951636.9459301"/>
    <node id="113416" x="1137645.75417359" y="1933636.93846912"/>
    <node id="113417" x="1137645.88318209" y="1934236.77450604"/>
    <node id="113420" x="1137845.66164884" y="1933136.81396156"/>
    <node id="113421" x="1137845.75222177" y="1934236.6338811"/>
    <node id="113422" x="1137845.7926333" y="1934436.70074726"/>
    <node id="113423" x="1137845.89038679" y="1936936.98889155"/>
    <node id="113424" x="1137845.89756853" y="1937636.67640661"/>
    <node id="113426" x="1137945.70142485" y="1933636.72900774"/>
    <node id="113428" x="1138045.89080084" y="1934236.86117054"/>
    <node id="113432" x="1138145.67373601" y="1952737.0243178"/>
    <node id="113433" x="1138145.63250371" y="1958037.20404182"/>
    <node id="113434" x="1138145.79944002" y="1960637.0096294"/>
    <node id="113435" x="1138145.83931166" y="1963337.03458002"/>
    <node id="113438" x="1138245.67027544" y="1925936.70761916"/>
    <node id="113439" x="1138245.62897852" y="1928536.83602693"/>
    <node id="113440" x="1138245.89337256" y="1931336.67165657"/>
    <node id="113441" x="1138245.65518734" y="1932236.78668777"/>
    <node id="113448" x="1138445.83868922" y="1933136.77014814"/>
    <node id="113450" x="1138445.80879492" y="1958037.00716895"/>
    <node id="113454" x="1138645.85406458" y="1883335.96318015"/>
    <node id="113458" x="1138745.69624556" y="1906036.28788777"/>
    <node id="113459" x="1138745.80727079" y="1907336.52265637"/>
    <node id="113460" x="1138745.75722568" y="1909936.26401527"/>
    <node id="113461" x="1138845.62239025" y="1904636.50163312"/>
    <node id="113462" x="1138845.71783247" y="1957337.05371451"/>
    <node id="113463" x="1138945.66145233" y="1900136.27847665"/>
    <node id="113464" x="1138945.76555717" y="1902136.18559114"/>
    <node id="113465" x="1138945.71804775" y="1936936.9804712"/>
    <node id="113469" x="1139045.62571829" y="1898036.09311481"/>
    <node id="113470" x="1139045.72969405" y="1899336.32305287"/>
    <node id="113472" x="1139145.83739632" y="1895736.2130626"/>
    <node id="113473" x="1139145.67422334" y="1896336.4011533"/>
    <node id="113474" x="1139145.62998988" y="1896836.37642957"/>
    <node id="113475" x="1139145.62892546" y="1950037.09186893"/>
    <node id="113476" x="1139145.80777959" y="1958736.9841646"/>
    <node id="113478" x="1139178.69295954" y="1963337.34082488"/>
    <node id="113480" x="1139245.81617782" y="1891336.22225608"/>
    <node id="113481" x="1139245.62945138" y="1894036.15705368"/>
    <node id="113483" x="1139345.87299049" y="1888736.07297789"/>
    <node id="113488" x="1139445.86347882" y="1883436.00056618"/>
    <node id="113489" x="1139445.78266071" y="1883735.91066049"/>
    <node id="113490" x="1139445.79050911" y="1886036.07728327"/>
    <node id="113498" x="1139545.7290417" y="1947336.83479909"/>
    <node id="113502" x="1139645.71031893" y="1955637.24710717"/>
    <node id="113508" x="1139845.75558498" y="1931636.64989523"/>
    <node id="113509" x="1139845.81275366" y="1949037.05078047"/>
    <node id="113511" x="1139957.82022813" y="1868647.98853558"/>
    <node id="113514" x="1139998.64332366" y="1896065.11355377"/>
    <node id="113515" x="1140033.72193565" y="1896278.16493346"/>
    <node id="113518" x="1139989.81196199" y="1867567.72880319"/>
    <node id="113519" x="1140045.6227416" y="1931436.82561037"/>
    <node id="113520" x="1140045.6508284" y="1950036.90804703"/>
    <node id="113521" x="1140045.83727605" y="1958037.1098126"/>
    <node id="113526" x="1140186.79336429" y="1862222.80351386"/>
    <node id="113527" x="1140145.66987668" y="1956437.22639072"/>
    <node id="113528" x="1140145.80561352" y="1958037.05133092"/>
    <node id="113529" x="1140145.61963915" y="1960737.0748151"/>
    <node id="113530" x="1140145.82542097" y="1963337.25181724"/>
    <node id="113533" x="1140220.78607587" y="1860884.55984305"/>
    <node id="113536" x="1140345.67304925" y="1955336.91364319"/>
    <node id="113547" x="1140645.71811549" y="1931536.68839455"/>
    <node id="113548" x="1140645.70146928" y="1954637.04895615"/>
    <node id="113549" x="1140645.5945878" y="1957237.21701506"/>
    <node id="113552" x="1140745.56043476" y="1931936.76337803"/>
    <node id="113557" x="1140845.78853686" y="1928636.52028969"/>
    <node id="113558" x="1140845.69977229" y="1955237.14449148"/>
    <node id="113560" x="1140945.809079" y="1925936.47954072"/>
    <node id="113561" x="1140945.68003312" y="1957937.11181128"/>
    <node id="113564" x="1141045.71621581" y="1923336.65681744"/>
    <node id="113565" x="1141045.64649215" y="1952136.8779369"/>
    <node id="113568" x="1141145.62551834" y="1965537.09971745"/>
    <node id="113576" x="1141345.76690906" y="1965537.35942415"/>
    <node id="113580" x="1141445.72436961" y="1904736.21158616"/>
    <node id="113581" x="1141445.55920403" y="1906136.29588697"/>
    <node id="113582" x="1141445.7920558" y="1907436.53379336"/>
    <node id="113583" x="1141445.77147405" y="1952637.01819849"/>
    <node id="113584" x="1141445.79187783" y="1953236.86049502"/>
    <node id="113588" x="1141545.61964142" y="1931136.78192474"/>
    <node id="113589" x="1141545.77066743" y="1931436.70089961"/>
    <node id="113591" x="1141645.66161977" y="1900236.30005505"/>
    <node id="113592" x="1141645.64861959" y="1901936.29620459"/>
    <node id="113593" x="1141645.72578524" y="1928636.80695625"/>
    <node id="113595" x="1141745.61028399" y="1896436.12919338"/>
    <node id="113596" x="1141745.76630659" y="1896736.40761633"/>
    <node id="113597" x="1141745.59608189" y="1898136.12231849"/>
    <node id="113598" x="1141745.54976373" y="1899436.35356358"/>
    <node id="113599" x="1141745.6314444" y="1947436.89878147"/>
    <node id="113600" x="1141745.63350921" y="1953937.12662333"/>
    <node id="113601" x="1142089.77890056" y="1960632.126938"/>
    <node id="113604" x="1141845.54638582" y="1894136.2565618"/>
    <node id="113605" x="1141845.54190646" y="1896036.31136337"/>
    <node id="113609" x="1141945.61472271" y="1891536.11081281"/>
    <node id="113613" x="1142045.55503823" y="1888836.11840185"/>
    <node id="113615" x="1142100.77502112" y="1963291.05302028"/>
    <node id="113616" x="1141921.58773553" y="1965922.08739747"/>
    <node id="113626" x="1142145.57671699" y="1885035.96898653"/>
    <node id="113627" x="1142145.56996491" y="1951137.0523754"/>
    <node id="113632" x="1142245.62792393" y="1883535.99460731"/>
    <node id="113633" x="1142245.5644633" y="1947336.79240639"/>
    <node id="113634" x="1142345.69412578" y="1952636.92421476"/>
    <node id="113635" x="1142345.68373706" y="1954037.04283478"/>
    <node id="113636" x="1142345.53800536" y="1955336.94466362"/>
    <node id="113637" x="1142345.64663921" y="1958036.97044291"/>
    <node id="113638" x="1142561.72895005" y="1960013.26311695"/>
    <node id="113642" x="1142445.72727854" y="1896136.20575762"/>
    <node id="113643" x="1142445.73540245" y="1896336.26931236"/>
    <node id="113644" x="1142445.58390474" y="1934136.59164586"/>
    <node id="113645" x="1142445.60560213" y="1938936.75175748"/>
    <node id="113646" x="1142445.58940109" y="1947537.12688484"/>
    <node id="113650" x="1142678.54572441" y="1930829.59813441"/>
    <node id="113652" x="1142792.74284465" y="1930074.56672358"/>
    <node id="113654" x="1143042.6778024" y="1960625.1360395"/>
    <node id="113658" x="1143045.67811451" y="1947336.77363049"/>
    <node id="113659" x="1143145.73854964" y="1936936.83434579"/>
    <node id="113660" x="1143145.72649295" y="1950037.10831221"/>
    <node id="113661" x="1143145.53166095" y="1957937.10655509"/>
    <node id="113667" x="1143245.70472516" y="1947337.04654093"/>
    <node id="113668" x="1143245.60571102" y="1949737.14104311"/>
    <node id="113670" x="1143345.75239733" y="1936036.62064154"/>
    <node id="113671" x="1143345.73239153" y="1950037.01787054"/>
    <node id="113675" x="1143445.70516912" y="1931436.84990255"/>
    <node id="113676" x="1143445.64446045" y="1933236.72477731"/>
    <node id="113677" x="1143445.60912583" y="1934236.6964212"/>
    <node id="113678" x="1143445.52425877" y="1954036.89483424"/>
    <node id="113679" x="1143445.58621588" y="1955337.16343674"/>
    <node id="113680" x="1143445.71025174" y="1957936.97424815"/>
    <node id="113681" x="1143445.54511317" y="1958436.96497915"/>
    <node id="113682" x="1143584.5919329" y="1960621.19301435"/>
    <node id="113683" x="1143584.61596873" y="1961291.00830958"/>
    <node id="113685" x="1143532.53758009" y="1931226.80809733"/>
    <node id="113687" x="1143545.47821353" y="1928736.81058761"/>
    <node id="113688" x="1143545.70194108" y="1930136.55128114"/>
    <node id="113689" x="1143545.59016323" y="1952637.09601772"/>
    <node id="113690" x="1143545.59734611" y="1963336.99446863"/>
    <node id="113693" x="1143645.53824924" y="1896136.33795329"/>
    <node id="113694" x="1143645.67244373" y="1896436.25215191"/>
    <node id="113695" x="1143645.63282655" y="1923436.64292015"/>
    <node id="113696" x="1143645.53944138" y="1926036.77684719"/>
    <node id="113697" x="1143645.51596351" y="1930136.86939038"/>
    <node id="113698" x="1143645.54775072" y="1932636.79680407"/>
    <node id="113700" x="1143745.71475355" y="1920736.61615511"/>
    <node id="113701" x="1143745.6896467" y="1934136.71119675"/>
    <node id="113702" x="1143745.51894244" y="1934836.76362355"/>
    <node id="113706" x="1143845.69244756" y="1932836.77654686"/>
    <node id="113709" x="1143945.66092672" y="1929836.81960293"/>
    <node id="113710" x="1144016.59952358" y="1930716.65315222"/>
    <node id="113711" x="1144018.68252829" y="1931007.83971001"/>
    <node id="113712" x="1144045.73286834" y="1886036.05995496"/>
    <node id="113715" x="1144145.73082818" y="1904836.53045672"/>
    <node id="113716" x="1144145.54524667" y="1906136.40257187"/>
    <node id="113717" x="1144145.48865842" y="1907536.49100143"/>
    <node id="113718" x="1144145.5589843" y="1934236.75310753"/>
    <node id="113720" x="1144245.64691287" y="1901736.39833423"/>
    <node id="113721" x="1144345.46427454" y="1898136.29252707"/>
    <node id="113722" x="1144345.67870885" y="1899536.37757497"/>
    <node id="113723" x="1144345.52177446" y="1900036.35452021"/>
    <node id="113724" x="1144345.53158864" y="1929036.74448658"/>
    <node id="113726" x="1144402.52164112" y="1930163.56055463"/>
    <node id="113728" x="1144445.50436472" y="1896136.33944632"/>
    <node id="113729" x="1144445.48885021" y="1896536.10246558"/>
    <node id="113730" x="1144445.61017038" y="1896836.38121057"/>
    <node id="113731" x="1144477.47644745" y="1929032.54936209"/>
    <node id="113732" x="1144544.65186446" y="1929547.57335407"/>
    <node id="113735" x="1144545.64310493" y="1865535.87804191"/>
    <node id="113737" x="1144545.55775414" y="1894136.38855817"/>
    <node id="113738" x="1144545.60499339" y="1928736.74386739"/>
    <node id="113739" x="1144696.50521355" y="1960637.22649993"/>
    <node id="113740" x="1144571.68141043" y="1929176.77897673"/>
    <node id="113742" x="1144645.65401761" y="1891536.24998297"/>
    <node id="113754" x="1144745.62712806" y="1886135.96134275"/>
    <node id="113755" x="1144745.63367903" y="1888836.26462918"/>
    <node id="113756" x="1144884.47445276" y="1962718.30741059"/>
    <node id="113761" x="1144925.60245193" y="1883616.18738852"/>
    <node id="113768" x="1145093.48287246" y="1876036.11051474"/>
    <node id="113772" x="1145171.58873727" y="1873039.0003304"/>
    <node id="113773" x="1145145.54413253" y="1928236.51960493"/>
    <node id="113774" x="1145155.57785868" y="1886316.24575063"/>
    <node id="113775" x="1145535.58101177" y="1867727.66811036"/>
    <node id="113776" x="1145245.58955678" y="1869767.82961734"/>
    <node id="113781" x="1145713.46418212" y="1864547.9589204"/>
    <node id="113782" x="1145699.48873609" y="1865547.80281923"/>
    <node id="113785" x="1145476.51042179" y="1862396.67796024"/>
    <node id="113789" x="1145545.53956552" y="1859735.87416861"/>
    <node id="113790" x="1145504.50117933" y="1861062.76891012"/>
    <node id="113791" x="1145545.49346372" y="1904836.31444695"/>
    <node id="113792" x="1145545.66327318" y="1931536.56696881"/>
    <node id="113793" x="1145545.49277074" y="1947336.84299016"/>
    <node id="113795" x="1145623.55930073" y="1928770.78553658"/>
    <node id="113805" x="1145877.54222012" y="1928269.64468277"/>
    <node id="113808" x="1145945.56702849" y="1928736.57528795"/>
    <node id="113809" x="1145945.54914598" y="1947337.06910978"/>
    <node id="113810" x="1145945.53227442" y="1950037.08996627"/>
    <node id="113811" x="1145999.45494929" y="1928300.7373629"/>
    <node id="113814" x="1146045.63947992" y="1924036.60888381"/>