<?xml version="1.0"?>
<!DOCTYPE transitSchedule SYSTEM "http://www.matsim.org/files/dtd/transitSchedule_v1.dtd">
<transitSchedule>
  <!--================================-->
  <transitStops>
    <stopFacility id="15666_31892" x="1175622.87515013" y="1897636.39969101" linkRefId="15666_15679"/>
    <stopFacility id="15679_31892" x="1175644.6782101" y="1896836.30479449" linkRefId="15666_15679"/>
    <stopFacility id="15751_31923" x="1176044.79877679" y="1896836.30419876" linkRefId="15679_15751"/>
    <stopFacility id="15741_32071" x="1176026.62449527" y="1897657.20087761" linkRefId="15751_15741"/>
    <stopFacility id="15742_32044" x="1176026.71799842" y="1898077.38187775" linkRefId="15741_15742"/>
    <stopFacility id="15713_32047" x="1176012.76059566" y="1898517.12655702" linkRefId="15742_15713"/>
    <stopFacility id="15714_31997" x="1176004.61246323" y="1898979.14882961" linkRefId="15713_15714"/>
    <stopFacility id="15715_31998" x="1175975.62372691" y="1899425.33001413" linkRefId="15714_15715"/>
    <stopFacility id="15716_32001" x="1175967.71560574" y="1899891.36311481" linkRefId="15715_15716"/>
    <stopFacility id="15717_32002" x="1175955.62385527" y="1900336.22541474" linkRefId="15716_15717"/>
    <stopFacility id="15718_32005" x="1175943.69704173" y="1900794.20842343" linkRefId="15717_15718"/>
    <stopFacility id="15772_32007" x="1176367.64749921" y="1900802.42741312" linkRefId="15718_15772"/>
    <stopFacility id="15773_32133" x="1176367.76266794" y="1901285.29030049" linkRefId="15772_15773"/>
    <stopFacility id="15719_32135" x="1175926.76133598" y="1901265.26970994" linkRefId="15773_15719"/>
    <stopFacility id="15720_32009" x="1175910.64296158" y="1901736.33780798" linkRefId="15719_15720"/>
    <stopFacility id="15721_32010" x="1175844.73002733" y="1902136.29936838" linkRefId="15720_15721"/>
    <stopFacility id="15702_32012" x="1175837.75271392" y="1902190.17693182" linkRefId="15721_15702"/>
    <stopFacility id="15696_31980" x="1175881.70189246" y="1903007.21206073" linkRefId="15702_15696"/>
    <stopFacility id="15697_31970" x="1175870.84017815" y="1903302.3066888" linkRefId="15696_15697"/>
    <stopFacility id="15698_31971" x="1175848.76430735" y="1903902.33264194" linkRefId="15697_15698"/>
    <stopFacility id="15699_31974" x="1175837.81912448" y="1904174.46796971" linkRefId="15698_15699"/>
    <stopFacility id="15700_31975" x="1175837.85185796" y="1904469.28768685" linkRefId="15699_15700"/>
    <stopFacility id="15683_31978" x="1175808.67179168" y="1905736.51737512" linkRefId="15700_15683"/>
    <stopFacility id="15752_31933" x="1176241.76822129" y="1905747.36172937" linkRefId="15683_15752"/>
    <stopFacility id="15753_32074" x="1176186.73448144" y="1907209.34703129" linkRefId="15752_15753"/>
    <stopFacility id="15743_32077" x="1176068.66543068" y="1908358.50296785" linkRefId="15753_15743"/>
    <stopFacility id="15684_32049" x="1175732.7205971" y="1908358.29682939" linkRefId="15743_15684"/>
    <stopFacility id="15619_31934" x="1175317.76543051" y="1908365.46627224" linkRefId="15684_15619"/>
    <stopFacility id="15607_31804" x="1175251.6093551" y="1910994.61815283" linkRefId="15619_15607"/>
    <stopFacility id="15569_31768" x="1174900.87389573" y="1911743.56114361" linkRefId="15607_15569"/>
    <stopFacility id="15535_31639" x="1174512.82161417" y="1912598.61734996" linkRefId="15569_15535"/>
    <stopFacility id="15509_31548" x="1174348.76250435" y="1912957.33319068" linkRefId="15535_15509"/>
    <stopFacility id="15484_31478" x="1174030.90721782" y="1913619.45898823" linkRefId="15509_15484"/>
    <stopFacility id="15458_31420" x="1173926.73713419" y="1914916.3323062" linkRefId="15484_15458"/>
    <stopFacility id="15440_31349" x="1173408.829813" y="1914913.58638837" linkRefId="15458_15440"/>
    <stopFacility id="15381_31292" x="1172644.78766529" y="1916136.61357693" linkRefId="15440_15381"/>
    <stopFacility id="15266_31113" x="1171444.71502427" y="1918836.45995234" linkRefId="15381_15266"/>
    <stopFacility id="15185_30782" x="1170344.8730211" y="1920636.66963489" linkRefId="15266_15185"/>
    <stopFacility id="15150_30529" x="1169844.90183855" y="1921336.75658157" linkRefId="15185_15150"/>
    <stopFacility id="15099_30408" x="1168944.92667612" y="1922836.51268939" linkRefId="15150_15099"/>
    <stopFacility id="15100_30235" x="1168944.94366901" y="1924036.56757934" linkRefId="15099_15100"/>
    <stopFacility id="15039_30238" x="1168244.91362001" y="1923936.64675263" linkRefId="15100_15039"/>
    <stopFacility id="14983_30035" x="1167545.02783376" y="1925236.507644" linkRefId="15039_14983"/>
    <stopFacility id="14929_29848" x="1166744.87251466" y="1926636.54978505" linkRefId="14983_14929"/>
    <stopFacility id="14894_29683" x="1166144.90226599" y="1927736.79975283" linkRefId="14929_14894"/>
    <stopFacility id="14859_29566" x="1165644.96642867" y="1929236.52525564" linkRefId="14894_14859"/>
    <stopFacility id="14853_29448" x="1165445.04351249" y="1930636.55307416" linkRefId="14859_14853"/>
    <stopFacility id="14843_29425" x="1165245.10232757" y="1931936.73014472" linkRefId="14853_14843"/>
    <stopFacility id="14825_29392" x="1164945.08346676" y="1934536.77192475" linkRefId="14843_14825"/>
    <stopFacility id="14821_29326" x="1164845.01355269" y="1937236.76482126" linkRefId="14825_14821"/>
    <stopFacility id="14799_29310" x="1164545.09940903" y="1938536.90417398" linkRefId="14821_14799"/>
    <stopFacility id="14795_29233" x="1164445.148051" y="1939436.9952311" linkRefId="14799_14795"/>
    <stopFacility id="14796_29222" x="1164445.04448852" y="1939836.77152741" linkRefId="14795_14796"/>
    <stopFacility id="14782_29226" x="1164245.00321218" y="1942536.72765618" linkRefId="14796_14782"/>
    <stopFacility id="14748_29179" x="1163545.14436376" y="1945236.84036724" linkRefId="14782_14748"/>
    <stopFacility id="14718_29074" x="1163045.19536045" y="1947937.05276318" linkRefId="14748_14718"/>
    <stopFacility id="14703_28984" x="1162845.14936941" y="1949036.81981226" linkRefId="14718_14703"/>
    <stopFacility id="14687_28934" x="1162645.21411704" y="1950337.02565045" linkRefId="14703_14687"/>
    <stopFacility id="15182_30517" x="1170244.95718671" y="1930736.68860473" linkRefId="15182_15167"/>
    <stopFacility id="15167_30517" x="1170044.74821081" y="1932036.82711004" linkRefId="15182_15167"/>
    <stopFacility id="15158_30465" x="1169944.93796996" y="1932036.76024934" linkRefId="15167_15158"/>
    <stopFacility id="15084_30436" x="1168745.00909432" y="1931936.84953455" linkRefId="15158_15084"/>
    <stopFacility id="14973_30185" x="1167344.93650417" y="1931936.73783742" linkRefId="15084_14973"/>
    <stopFacility id="14843_29826" x="1165245.10232757" y="1931936.73014472" linkRefId="14973_14843"/>
    <stopFacility id="14811_29391" x="1164744.92067151" y="1931836.64136999" linkRefId="14843_14811"/>
    <stopFacility id="14654_29274" x="1162145.21300409" y="1931836.69035269" linkRefId="14811_14654"/>
    <stopFacility id="14523_28789" x="1159645.05148038" y="1931836.6852472" linkRefId="14654_14523"/>
    <stopFacility id="14504_28372" x="1159538.1151258" y="1931807.81976166" linkRefId="14523_14504"/>
    <stopFacility id="14367_28307" x="1156845.11857986" y="1931736.69569449" linkRefId="14504_14367"/>
    <stopFacility id="14316_27853" x="1156245.1674463" y="1931736.63224478" linkRefId="14367_14316"/>
    <stopFacility id="14209_27686" x="1154245.42014923" y="1931736.8973792" linkRefId="14316_14209"/>
    <stopFacility id="14123_27321" x="1152845.35847594" y="1931736.56383325" linkRefId="14209_14123"/>
    <stopFacility id="14055_27010" x="1151545.2787428" y="1931636.81579925" linkRefId="14123_14055"/>
    <stopFacility id="13938_26773" x="1148845.50165769" y="1931636.90170782" linkRefId="14055_13938"/>
    <stopFacility id="13792_26362" x="1145545.66327318" y="1931536.56696881" linkRefId="13938_13792"/>
    <stopFacility id="13675_25870" x="1143445.70516912" y="1931436.84990255" linkRefId="13792_13675"/>
    <stopFacility id="13589_25503" x="1141545.77066743" y="1931436.70089961" linkRefId="13675_13589"/>
    <stopFacility id="13547_25240" x="1140645.71811549" y="1931536.68839455" linkRefId="13589_13547"/>
    <stopFacility id="13519_25107" x="1140045.6227416" y="1931436.82561037" linkRefId="13547_13519"/>
    <stopFacility id="13440_25020" x="1138245.89337256" y="1931336.67165657" linkRefId="13519_13440"/>
    <stopFacility id="15766_32115" x="1176237.85639504" y="1902214.23318589" linkRefId="15766_15775"/>
    <stopFacility id="15775_32115" x="1176244.75995023" y="1902136.30311682" linkRefId="15766_15775"/>
    <stopFacility id="15774_32142" x="1176330.80005715" y="1901740.15224233" linkRefId="15775_15774"/>
    <stopFacility id="15773_32138" x="1176367.76266794" y="1901285.29030049" linkRefId="15774_15773"/>
    <stopFacility id="15772_32136" x="1176367.64749921" y="1900802.42741312" linkRefId="15773_15772"/>
    <stopFacility id="15771_32132" x="1176388.81112862" y="1900381.32722919" linkRefId="15772_15771"/>
    <stopFacility id="15770_32130" x="1176408.70392124" y="1899916.12139296" linkRefId="15771_15770"/>
    <stopFacility id="15782_32127" x="1176422.61204613" y="1899450.13760779" linkRefId="15770_15782"/>
    <stopFacility id="15769_32165" x="1176433.60838342" y="1899007.08868104" linkRefId="15782_15769"/>
    <stopFacility id="15781_32123" x="1176434.84600521" y="1898525.33069696" linkRefId="15769_15781"/>
    <stopFacility id="15780_32163" x="1176459.60054066" y="1898065.26718083" linkRefId="15781_15780"/>
    <stopFacility id="15779_32158" x="1176467.79281286" y="1897665.19746409" linkRefId="15780_15779"/>
    <stopFacility id="15778_32154" x="1176492.82748367" y="1897138.08253424" linkRefId="15779_15778"/>
    <stopFacility id="15793_32151" x="1176489.62212777" y="1896832.30492388" linkRefId="15778_15793"/>
    <stopFacility id="15792_32188" x="1176489.65968851" y="1896662.11951424" linkRefId="15793_15792"/>
    <stopFacility id="15791_32183" x="1176497.73340138" y="1896177.13846106" linkRefId="15792_15791"/>
    <stopFacility id="15790_32180" x="1176522.66989624" y="1895728.37408381" linkRefId="15791_15790"/>
    <stopFacility id="15787_32177" x="1176538.75554432" y="1895064.16296113" linkRefId="15790_15787"/>
    <stopFacility id="15678_32170" x="1175644.70356786" y="1895136.27169062" linkRefId="15787_15678"/>
    <stopFacility id="15433_31917" x="1173244.88055087" y="1894936.3617383" linkRefId="15678_15433"/>
    <stopFacility id="15403_31269" x="1172844.73129309" y="1894936.04618" linkRefId="15433_15403"/>
    <stopFacility id="15370_31181" x="1172444.85159554" y="1894936.10405998" linkRefId="15403_15370"/>
    <stopFacility id="15338_31082" x="1172044.97202391" y="1894936.16877831" linkRefId="15370_15338"/>
    <stopFacility id="15316_30978" x="1171944.73050241" y="1894936.09274034" linkRefId="15338_15316"/>
    <stopFacility id="15248_30915" x="1171344.90996801" y="1894936.3874102" linkRefId="15316_15248"/>
    <stopFacility id="15228_30734" x="1171144.97179664" y="1894936.24612046" linkRefId="15248_15228"/>
    <stopFacility id="15237_30678" x="1171244.73790182" y="1892236.31724409" linkRefId="15228_15237"/>
    <stopFacility id="15236_30710" x="1171244.8861672" y="1891536.26561937" linkRefId="15237_15236"/>
    <stopFacility id="15235_30706" x="1171244.85101152" y="1891336.19823328" linkRefId="15236_15235"/>
    <stopFacility id="15234_30702" x="1171244.94407492" y="1890336.22816436" linkRefId="15235_15234"/>
    <stopFacility id="15233_30698" x="1171244.8184346" y="1889636.17499581" linkRefId="15234_15233"/>
    <stopFacility id="15232_30694" x="1171244.99967614" y="1887636.23695507" linkRefId="15233_15232"/>
    <stopFacility id="15112_30689" x="1169244.88061483" y="1886236.27236059" linkRefId="15232_15112"/>
    <stopFacility id="15056_30281" x="1168444.94928052" y="1885736.17437862" linkRefId="15112_15056"/>
    <stopFacility id="14935_30087" x="1166844.9461406" y="1884636.21081657" linkRefId="15056_14935"/>
    <stopFacility id="14887_29704" x="1166045.14272728" y="1884035.98307698" linkRefId="14935_14887"/>
    <stopFacility id="14740_29542" x="1163587.21257592" y="1881979.92870091" linkRefId="14887_14740"/>
    <stopFacility id="14699_29051" x="1162949.17171641" y="1881445.91635781" linkRefId="14740_14699"/>
    <stopFacility id="14601_28918" x="1161145.11579453" y="1879935.92272287" linkRefId="14699_14601"/>
    <stopFacility id="14585_28631" x="1160997.10776794" y="1879828.03113423" linkRefId="14601_14585"/>
    <stopFacility id="14510_28577" x="1159655.23986715" y="1878701.00697252" linkRefId="14585_14510"/>
    <stopFacility id="14450_28329" x="1158383.16916911" y="1877664.9562329" linkRefId="14510_14450"/>
    <stopFacility id="14317_28120" x="1156345.30249883" y="1875952.08686779" linkRefId="14450_14317"/>
    <stopFacility id="14275_27689" x="1155767.38435802" y="1875464.99958688" linkRefId="14317_14275"/>
    <stopFacility id="14128_27540" x="1153057.35283081" y="1873222.75871317" linkRefId="14275_14128"/>
    <stopFacility id="14004_27030" x="1150577.35779718" y="1871151.925057" linkRefId="14128_14004"/>
    <stopFacility id="13910_26594" x="1148553.49169436" y="1870470.04698672" linkRefId="14004_13910"/>
    <stopFacility id="13893_26261" x="1147917.62034851" y="1870351.90161689" linkRefId="13910_13893"/>
    <stopFacility id="13892_26206" x="1147981.47297965" y="1867768.67414415" linkRefId="13893_13892"/>
    <stopFacility id="13895_26202" x="1148059.48355153" y="1865111.93788336" linkRefId="13892_13895"/>
    <stopFacility id="13781_26211" x="1145713.46418212" y="1864547.9589204" linkRefId="13895_13781"/>
    <stopFacility id="13782_25836" x="1145699.48873609" y="1865547.80281923" linkRefId="13781_13782"/>
    <stopFacility id="13775_25840" x="1145535.58101177" y="1867727.66811036" linkRefId="13782_13775"/>
    <stopFacility id="13776_25815" x="1145245.58955678" y="1869767.82961734" linkRefId="13775_13776"/>
    <stopFacility id="13511_25818" x="1139957.82022813" y="1868647.98853558" linkRefId="13776_13511"/>
    <stopFacility id="13412_24997" x="1137301.87508321" y="1868090.80821627" linkRefId="13511_13412"/>
    <stopFacility id="13294_24669" x="1134669.77015383" y="1867412.00719614" linkRefId="13412_13294"/>
    <stopFacility id="13072_24293" x="1129292.97473888" y="1867209.76971266" linkRefId="13294_13072"/>
    <stopFacility id="12942_23552" x="1127019.18360052" y="1866977.89805563" linkRefId="13072_12942"/>
    <stopFacility id="13426_24710" x="1137945.70142485" y="1933636.72900774" linkRefId="13426_13420"/>
    <stopFacility id="13420_24710" x="1137845.66164884" y="1933136.81396156" linkRefId="13426_13420"/>
    <stopFacility id="13441_24689" x="1138245.65518734" y="1932236.78668777" linkRefId="13420_13441"/>
    <stopFacility id="13440_24765" x="1138245.89337256" y="1931336.67165657" linkRefId="13441_13440"/>
    <stopFacility id="13519_24762" x="1140045.6227416" y="1931436.82561037" linkRefId="13440_13519"/>
    <stopFacility id="13547_25022" x="1140645.71811549" y="1931536.68839455" linkRefId="13519_13547"/>
    <stopFacility id="13589_25109" x="1141545.77066743" y="1931436.70089961" linkRefId="13547_13589"/>
    <stopFacility id="13675_25242" x="1143445.70516912" y="1931436.84990255" linkRefId="13589_13675"/>
    <stopFacility id="13792_25506" x="1145545.66327318" y="1931536.56696881" linkRefId="13675_13792"/>
    <stopFacility id="13938_25873" x="1148845.50165769" y="1931636.90170782" linkRefId="13792_13938"/>
    <stopFacility id="14055_26365" x="1151545.2787428" y="1931636.81579925" linkRefId="13938_14055"/>
    <stopFacility id="14123_26775" x="1152845.35847594" y="1931736.56383325" linkRefId="14055_14123"/>
    <stopFacility id="14209_27013" x="1154245.42014923" y="1931736.8973792" linkRefId="14123_14209"/>
    <stopFacility id="14316_27324" x="1156245.1674463" y="1931736.63224478" linkRefId="14209_14316"/>
    <stopFacility id="14367_27688" x="1156845.11857986" y="1931736.69569449" linkRefId="14316_14367"/>
    <stopFacility id="14504_27855" x="1159538.1151258" y="1931807.81976166" linkRefId="14367_14504"/>
    <stopFacility id="14523_28310" x="1159645.05148038" y="1931836.6852472" linkRefId="14504_14523"/>
    <stopFacility id="14654_28374" x="1162145.21300409" y="1931836.69035269" linkRefId="14523_14654"/>
    <stopFacility id="14811_28792" x="1164744.92067151" y="1931836.64136999" linkRefId="14654_14811"/>
    <stopFacility id="14843_29277" x="1165245.10232757" y="1931936.73014472" linkRefId="14811_14843"/>
    <stopFacility id="14973_29394" x="1167344.93650417" y="1931936.73783742" linkRefId="14843_14973"/>
    <stopFacility id="15084_29829" x="1168745.00909432" y="1931936.84953455" linkRefId="14973_15084"/>
    <stopFacility id="15158_30188" x="1169944.93796996" y="1932036.76024934" linkRefId="15084_15158"/>
    <stopFacility id="15167_30438" x="1170044.74821081" y="1932036.82711004" linkRefId="15158_15167"/>
    <stopFacility id="15191_30467" x="1170444.84086972" y="1932236.81214384" linkRefId="15167_15191"/>
    <stopFacility id="15204_30555" x="1170644.79884081" y="1930936.6745746" linkRefId="15191_15204"/>
    <stopFacility id="15182_30596" x="1170244.95718671" y="1930736.68860473" linkRefId="15204_15182"/>
    <stopFacility id="15166_30516" x="1170044.78162167" y="1930736.54936807" linkRefId="15182_15166"/>
    <stopFacility id="15083_30460" x="1168744.96984001" y="1930636.57256346" linkRefId="15166_15083"/>
    <stopFacility id="15186_30533" x="1170345.00128632" y="1921336.73288041" linkRefId="15186_15150"/>
    <stopFacility id="15150_30533" x="1169844.90183855" y="1921336.75658157" linkRefId="15186_15150"/>
    <stopFacility id="15105_30409" x="1169044.96251231" y="1921336.59988982" linkRefId="15150_15105"/>
    <stopFacility id="14989_30256" x="1167645.03803156" y="1921236.63003556" linkRefId="15105_14989"/>
    <stopFacility id="14909_29862" x="1166344.99634075" y="1921236.64759025" linkRefId="14989_14909"/>
    <stopFacility id="14832_29610" x="1165044.95592498" y="1921236.73760655" linkRefId="14909_14832"/>
    <stopFacility id="14836_29353" x="1165145.07379015" y="1918536.40089667" linkRefId="14832_14836"/>
    <stopFacility id="14670_29366" x="1162445.10301028" y="1918536.39351361" linkRefId="14836_14670"/>
    <stopFacility id="14586_28841" x="1160945.12380541" y="1918436.42960879" linkRefId="14670_14586"/>
    <stopFacility id="14554_28582" x="1160445.14470146" y="1917836.45251799" linkRefId="14586_14554"/>
    <stopFacility id="14529_28487" x="1159845.26681132" y="1917236.46354444" linkRefId="14554_14529"/>
    <stopFacility id="14383_28393" x="1157145.28071205" y="1917036.63987475" linkRefId="14529_14383"/>
    <stopFacility id="14286_27905" x="1155845.29260338" y="1917036.51799689" linkRefId="14383_14286"/>
    <stopFacility id="14235_27580" x="1154845.38367922" y="1916936.62274233" linkRefId="14286_14235"/>
    <stopFacility id="14218_27413" x="1154445.33361781" y="1917236.53507844" linkRefId="14235_14218"/>
    <stopFacility id="14133_27354" x="1153145.28892061" y="1918336.38500761" linkRefId="14218_14133"/>
    <stopFacility id="14068_27047" x="1151845.36411962" y="1919436.671258" linkRefId="14133_14068"/>
    <stopFacility id="13989_26817" x="1150045.3370641" y="1920936.5174901" linkRefId="14068_13989"/>
    <stopFacility id="13947_26541" x="1149045.57745912" y="1920836.50495368" linkRefId="13989_13947"/>
    <stopFacility id="13830_26393" x="1146445.50144408" y="1920836.49988254" linkRefId="13947_13830"/>
    <stopFacility id="13700_25991" x="1143745.71475355" y="1920736.61615511" linkRefId="13830_13700"/>
    <stopFacility id="13563_25583" x="1141045.64013604" y="1920636.67889081" linkRefId="13700_13563"/>
    <stopFacility id="13447_25156" x="1138445.83503233" y="1920636.47437208" linkRefId="13563_13447"/>
    <stopFacility id="13353_24786" x="1135845.86693161" y="1920536.7082395" linkRefId="13447_13353"/>
    <stopFacility id="13230_24467" x="1133146.02813918" y="1920436.59446157" linkRefId="13353_13230"/>
    <stopFacility id="13118_24078" x="1130446.08901047" y="1920436.64282024" linkRefId="13230_13118"/>
    <stopFacility id="12959_23703" x="1127446.11472572" y="1920336.40320415" linkRefId="13118_12959"/>
    <stopFacility id="12878_23190" x="1125246.00375333" y="1920336.48334487" linkRefId="12959_12878"/>
    <stopFacility id="15906_32513" x="1177344.59308952" y="1860435.57336883" linkRefId="15906_16102"/>
    <stopFacility id="16102_32513" x="1180044.75736724" y="1860535.57441391" linkRefId="15906_16102"/>
    <stopFacility id="16126_33073" x="1180644.64218713" y="1860535.85129069" linkRefId="16102_16126"/>
    <stopFacility id="16170_33149" x="1182544.67156929" y="1860635.65079102" linkRefId="16126_16170"/>
    <stopFacility id="16239_33284" x="1185244.57244873" y="1860635.66903775" linkRefId="16170_16239"/>
    <stopFacility id="16282_33503" x="1187744.51840977" y="1860635.72030431" linkRefId="16239_16282"/>
    <stopFacility id="16359_33643" x="1190544.43175303" y="1860835.82565142" linkRefId="16282_16359"/>
    <stopFacility id="16358_33857" x="1190544.43692044" y="1858135.83088962" linkRefId="16359_16358"/>
    <stopFacility id="16367_33854" x="1190644.30275501" y="1855435.62432538" linkRefId="16358_16367"/>
    <stopFacility id="16436_33879" x="1193544.14648358" y="1855635.49652111" linkRefId="16367_16436"/>
    <stopFacility id="16461_34064" x="1195544.22133387" y="1855635.56013124" linkRefId="16436_16461"/>
    <stopFacility id="16473_34140" x="1196063.31556731" y="1856076.81654756" linkRefId="16461_16473"/>
    <stopFacility id="16488_34179" x="1196544.26169691" y="1855635.47364984" linkRefId="16473_16488"/>
    <stopFacility id="16515_34238" x="1198544.24557966" y="1853135.48893974" linkRefId="16488_16515"/>
    <stopFacility id="16518_34329" x="1198644.2146457" y="1850435.6693752" linkRefId="16515_16518"/>
    <stopFacility id="16497_34331" x="1197344.28304962" y="1850435.49860115" linkRefId="16518_16497"/>
    <stopFacility id="16499_34268" x="1197644.10365839" y="1847835.52413376" linkRefId="16497_16499"/>
    <stopFacility id="16503_34272" x="1197688.1337175" y="1845152.3288896" linkRefId="16499_16503"/>
    <stopFacility id="16502_34287" x="1197744.12141159" y="1844548.62822902" linkRefId="16503_16502"/>
    <stopFacility id="16495_34282" x="1197379.05447162" y="1844376.58726205" linkRefId="16502_16495"/>
    <stopFacility id="16475_34258" x="1196261.15174475" y="1843831.50510545" linkRefId="16495_16475"/>
    <stopFacility id="16453_34184" x="1194992.34182204" y="1843486.64743136" linkRefId="16475_16453"/>
    <stopFacility id="16390_34112" x="1191133.21027854" y="1843700.52300878" linkRefId="16453_16390"/>
    <stopFacility id="16307_33933" x="1188444.53774018" y="1844035.59166888" linkRefId="16390_16307"/>
    <stopFacility id="16313_33726" x="1188544.5418049" y="1842235.50995525" linkRefId="16307_16313"/>
    <stopFacility id="16249_33741" x="1185744.54015436" y="1842135.53782085" linkRefId="16313_16249"/>
    <stopFacility id="16247_33537" x="1185644.35805603" y="1843535.49616994" linkRefId="16249_16247"/>
    <stopFacility id="16200_33530" x="1183144.56162595" y="1843335.64050268" linkRefId="16247_16200"/>
    <stopFacility id="16202_33391" x="1183244.56874023" y="1842035.52288022" linkRefId="16200_16202"/>
    <stopFacility id="16119_33396" x="1180544.73508981" y="1841935.561715" linkRefId="16202_16119"/>
    <stopFacility id="16032_33125" x="1178844.66455171" y="1841935.63578631" linkRefId="16119_16032"/>
    <stopFacility id="15958_32863" x="1177944.8067369" y="1841935.49045983" linkRefId="16032_15958"/>
    <stopFacility id="14687_28887" x="1162645.21411704" y="1950337.02565045" linkRefId="14687_14620"/>
    <stopFacility id="14620_28887" x="1161445.23013807" y="1950436.81650867" linkRefId="14687_14620"/>
    <stopFacility id="14621_28694" x="1161445.1479642" y="1952836.94486962" linkRefId="14620_14621"/>
    <stopFacility id="14655_28698" x="1162145.02365014" y="1953236.96587058" linkRefId="14621_14655"/>
    <stopFacility id="14812_28796" x="1164870.90969715" y="1953231.0135098" linkRefId="14655_14812"/>
    <stopFacility id="14761_29279" x="1163963.06478115" y="1955627.03103206" linkRefId="14812_14761"/>
    <stopFacility id="14641_29110" x="1161844.97096589" y="1955737.20982222" linkRefId="14761_14641"/>
    <stopFacility id="14655_28754" x="1162145.02365014" y="1953236.96587058" linkRefId="14641_14655"/>
    <stopFacility id="14687_28795" x="1162645.21411704" y="1950337.02565045" linkRefId="14655_14687"/>
    <stopFacility id="14703_28889" x="1162845.14936941" y="1949036.81981226" linkRefId="14687_14703"/>
    <stopFacility id="14718_28935" x="1163045.19536045" y="1947937.05276318" linkRefId="14703_14718"/>
    <stopFacility id="14748_28985" x="1163545.14436376" y="1945236.84036724" linkRefId="14718_14748"/>
    <stopFacility id="14782_29076" x="1164245.00321218" y="1942536.72765618" linkRefId="14748_14782"/>
    <stopFacility id="14796_29180" x="1164445.04448852" y="1939836.77152741" linkRefId="14782_14796"/>
    <stopFacility id="14795_29227" x="1164445.148051" y="1939436.9952311" linkRefId="14796_14795"/>
    <stopFacility id="14799_29223" x="1164545.09940903" y="1938536.90417398" linkRefId="14795_14799"/>
    <stopFacility id="14821_29235" x="1164845.01355269" y="1937236.76482126" linkRefId="14799_14821"/>
    <stopFacility id="14825_29311" x="1164945.08346676" y="1934536.77192475" linkRefId="14821_14825"/>
    <stopFacility id="14843_29327" x="1165245.10232757" y="1931936.73014472" linkRefId="14825_14843"/>
    <stopFacility id="14853_29393" x="1165445.04351249" y="1930636.55307416" linkRefId="14843_14853"/>
    <stopFacility id="14859_29426" x="1165644.96642867" y="1929236.52525564" linkRefId="14853_14859"/>
    <stopFacility id="14894_29449" x="1166144.90226599" y="1927736.79975283" linkRefId="14859_14894"/>
    <stopFacility id="14929_29568" x="1166744.87251466" y="1926636.54978505" linkRefId="14894_14929"/>
    <stopFacility id="14983_29684" x="1167545.02783376" y="1925236.507644" linkRefId="14929_14983"/>
    <stopFacility id="15039_29850" x="1168244.91362001" y="1923936.64675263" linkRefId="14983_15039"/>
    <stopFacility id="15099_30037" x="1168944.92667612" y="1922836.51268939" linkRefId="15039_15099"/>
    <stopFacility id="15150_30237" x="1169844.90183855" y="1921336.75658157" linkRefId="15099_15150"/>
    <stopFacility id="15185_30410" x="1170344.8730211" y="1920636.66963489" linkRefId="15150_15185"/>
    <stopFacility id="15266_30532" x="1171444.71502427" y="1918836.45995234" linkRefId="15185_15266"/>
    <stopFacility id="15381_30785" x="1172644.78766529" y="1916136.61357693" linkRefId="15266_15381"/>
    <stopFacility id="15440_31114" x="1173408.829813" y="1914913.58638837" linkRefId="15381_15440"/>
    <stopFacility id="15458_31293" x="1173926.73713419" y="1914916.3323062" linkRefId="15440_15458"/>
    <stopFacility id="15484_31351" x="1174030.90721782" y="1913619.45898823" linkRefId="15458_15484"/>
    <stopFacility id="15509_31421" x="1174348.76250435" y="1912957.33319068" linkRefId="15484_15509"/>
    <stopFacility id="15535_31480" x="1174512.82161417" y="1912598.61734996" linkRefId="15509_15535"/>
    <stopFacility id="15569_31550" x="1174900.87389573" y="1911743.56114361" linkRefId="15535_15569"/>
    <stopFacility id="15607_31641" x="1175251.6093551" y="1910994.61815283" linkRefId="15569_15607"/>
    <stopFacility id="15619_31769" x="1175317.76543051" y="1908365.46627224" linkRefId="15607_15619"/>
    <stopFacility id="15618_31805" x="1175419.8174796" y="1905709.27957512" linkRefId="15619_15618"/>
    <stopFacility id="15628_31801" x="1175437.82024719" y="1904474.39210004" linkRefId="15618_15628"/>
    <stopFacility id="15627_31825" x="1175443.85596204" y="1904169.41825669" linkRefId="15628_15627"/>
    <stopFacility id="15626_31822" x="1175464.73865336" y="1903880.23621962" linkRefId="15627_15626"/>
    <stopFacility id="15625_31821" x="1175475.87159717" y="1903285.22246105" linkRefId="15626_15625"/>
    <stopFacility id="15624_31818" x="1175475.82494845" y="1902991.49615646" linkRefId="15625_15624"/>
    <stopFacility id="15634_31816" x="1175438.85178502" y="1902185.45185842" linkRefId="15624_15634"/>
    <stopFacility id="15653_31835" x="1175444.70023064" y="1902136.30246816" linkRefId="15634_15653"/>
    <stopFacility id="15652_31871" x="1175522.79334581" y="1901711.2943496" linkRefId="15653_15652"/>
    <stopFacility id="15651_31869" x="1175530.86681994" y="1901257.28820248" linkRefId="15652_15651"/>
    <stopFacility id="15650_31868" x="1175530.84260945" y="1900794.46969776" linkRefId="15651_15650"/>
    <stopFacility id="15649_31865" x="1175559.64796892" y="1900336.26036669" linkRefId="15650_15649"/>
    <stopFacility id="15648_31864" x="1175579.66233925" y="1899887.45419787" linkRefId="15649_15648"/>
    <stopFacility id="15647_31861" x="1175592.70711445" y="1899425.10739688" linkRefId="15648_15647"/>
    <stopFacility id="15646_31860" x="1175596.86659987" y="1898950.29755574" linkRefId="15647_15646"/>
    <stopFacility id="15645_31857" x="1175621.61931941" y="1898488.41123629" linkRefId="15646_15645"/>
    <stopFacility id="15667_31856" x="1175626.74994561" y="1898061.34901384" linkRefId="15645_15667"/>
    <stopFacility id="15666_31895" x="1175622.87515013" y="1897636.39969101" linkRefId="15667_15666"/>
    <stopFacility id="14637_28740" x="1161895.24651583" y="1846875.45295461" linkRefId="14637_14792"/>
    <stopFacility id="14792_28740" x="1164444.98919201" y="1846935.68770092" linkRefId="14637_14792"/>
    <stopFacility id="14953_29214" x="1167044.91344332" y="1847035.58191029" linkRefId="14792_14953"/>
    <stopFacility id="15044_29766" x="1168344.98889313" y="1847035.53124899" linkRefId="14953_15044"/>
    <stopFacility id="15141_30051" x="1169744.9661562" y="1847035.61238641" linkRefId="15044_15141"/>
    <stopFacility id="15332_30381" x="1172044.89619848" y="1847135.51548071" linkRefId="15141_15332"/>